BEGIN Configuration File: runfiles/meshconfig
// $Id $

// Copyright (c) 2007-2015, Trustees of The Leland Stanford Junior University
// All rights reserved.
//
// Redistribution and use in source and binary forms, with or without
// modification, are permitted provided that the following conditions are met:
//
// Redistributions of source code must retain the above copyright notice, this
// list of conditions and the following disclaimer.
// Redistributions in binary form must reproduce the above copyright notice,
// this list of conditions and the following disclaimer in the documentation
// and/or other materials provided with the distribution.
//
// THIS SOFTWARE IS PROVIDED BY THE COPYRIGHT HOLDERS AND CONTRIBUTORS "AS IS"
// AND ANY EXPRESS OR IMPLIED WARRANTIES, INCLUDING, BUT NOT LIMITED TO, THE
// IMPLIED WARRANTIES OF MERCHANTABILITY AND FITNESS FOR A PARTICULAR PURPOSE
// ARE DISCLAIMED. IN NO EVENT SHALL THE COPYRIGHT OWNER OR CONTRIBUTORS BE
// LIABLE FOR ANY DIRECT, INDIRECT, INCIDENTAL, SPECIAL, EXEMPLARY, OR
// CONSEQUENTIAL DAMAGES (INCLUDING, BUT NOT LIMITED TO, PROCUREMENT OF
// SUBSTITUTE GOODS OR SERVICES; LOSS OF USE, DATA, OR PROFITS; OR BUSINESS
// INTERRUPTION) HOWEVER CAUSED AND ON ANY THEORY OF LIABILITY, WHETHER IN
// CONTRACT, STRICT LIABILITY, OR TORT (INCLUDING NEGLIGENCE OR OTHERWISE)
// ARISING IN ANY WAY OUT OF THE USE OF THIS SOFTWARE, EVEN IF ADVISED OF THE
// POSSIBILITY OF SUCH DAMAGE.


//
// Flow control
//

num_vcs     = 16;
vc_buf_size = 8;

wait_for_tail_credit = 1;


vc_allocator = islip; 
sw_allocator = islip;
alloc_iters  = 2;

credit_delay   = 2;
routing_delay  = 0;
vc_alloc_delay = 1;
sw_alloc_delay = 1;
st_final_delay = 1;

input_speedup     = 1;
output_speedup    = 1;
internal_speedup  = 1.0;

//
// Traffic
//

sim_type = latency;

warmup_periods = 3;

sample_period  = 1000;  

sim_count          = 1;



//topoogy

topology = mesh;
k  = 8;
n  = 2;
//
// Routing


routing_function = dor;

packet_size = 1;

use_read_write = 0;

traffic       = uniform;

injection_rate = 0.2;




END Configuration File: runfiles/meshconfig
Class 0:
Packet latency average = 27.6768
	minimum = 6
	maximum = 68
Network latency average = 27.6768
	minimum = 6
	maximum = 68
Slowest packet = 8573
Flit latency average = 27.6768
	minimum = 6
	maximum = 68
Slowest flit = 8573
Fragmentation average = 0
	minimum = 0
	maximum = 0
Injected packet rate average = 0.197109
	minimum = 0.156 (at node 7)
	maximum = 0.219 (at node 28)
Accepted packet rate average = 0.191562
	minimum = 0.16 (at node 36)
	maximum = 0.22 (at node 14)
Injected flit rate average = 0.197109
	minimum = 0.156 (at node 7)
	maximum = 0.219 (at node 28)
Accepted flit rate average= 0.191562
	minimum = 0.16 (at node 36)
	maximum = 0.22 (at node 14)
Injected packet length average = 1
Accepted packet length average = 1
Total in-flight flits = 355 (0 measured)
latency change    = 1
throughput change = 1
Class 0:
Packet latency average = 27.7401
	minimum = 6
	maximum = 68
Network latency average = 27.7401
	minimum = 6
	maximum = 68
Slowest packet = 8573
Flit latency average = 27.7401
	minimum = 6
	maximum = 68
Slowest flit = 8573
Fragmentation average = 0
	minimum = 0
	maximum = 0
Injected packet rate average = 0.198797
	minimum = 0.171 (at node 7)
	maximum = 0.221 (at node 51)
Accepted packet rate average = 0.196211
	minimum = 0.176 (at node 52)
	maximum = 0.2155 (at node 8)
Injected flit rate average = 0.198797
	minimum = 0.171 (at node 7)
	maximum = 0.221 (at node 51)
Accepted flit rate average= 0.196211
	minimum = 0.176 (at node 52)
	maximum = 0.2155 (at node 8)
Injected packet length average = 1
Accepted packet length average = 1
Total in-flight flits = 331 (0 measured)
latency change    = 0.00228412
throughput change = 0.023691
Class 0:
Packet latency average = 27.7809
	minimum = 6
	maximum = 69
Network latency average = 27.7809
	minimum = 6
	maximum = 69
Slowest packet = 30508
Flit latency average = 27.7809
	minimum = 6
	maximum = 69
Slowest flit = 30508
Fragmentation average = 0
	minimum = 0
	maximum = 0
Injected packet rate average = 0.197875
	minimum = 0.169 (at node 45)
	maximum = 0.229 (at node 47)
Accepted packet rate average = 0.197828
	minimum = 0.162 (at node 17)
	maximum = 0.222 (at node 9)
Injected flit rate average = 0.197875
	minimum = 0.169 (at node 45)
	maximum = 0.229 (at node 47)
Accepted flit rate average= 0.197828
	minimum = 0.162 (at node 17)
	maximum = 0.222 (at node 9)
Injected packet length average = 1
Accepted packet length average = 1
Total in-flight flits = 334 (0 measured)
latency change    = 0.00146815
throughput change = 0.00817471
Warmed up ...Time used is 3000 cycles
Class 0:
Packet latency average = 27.4738
	minimum = 6
	maximum = 66
Network latency average = 27.4738
	minimum = 6
	maximum = 66
Slowest packet = 46399
Flit latency average = 27.5701
	minimum = 6
	maximum = 66
Slowest flit = 46399
Fragmentation average = 0
	minimum = 0
	maximum = 0
Injected packet rate average = 0.201156
	minimum = 0.175 (at node 18)
	maximum = 0.227 (at node 26)
Accepted packet rate average = 0.200734
	minimum = 0.178 (at node 43)
	maximum = 0.225 (at node 19)
Injected flit rate average = 0.201156
	minimum = 0.175 (at node 18)
	maximum = 0.227 (at node 26)
Accepted flit rate average= 0.200734
	minimum = 0.178 (at node 43)
	maximum = 0.225 (at node 19)
Injected packet length average = 1
Accepted packet length average = 1
Total in-flight flits = 361 (361 measured)
latency change    = 0.011177
throughput change = 0.0144781
Class 0:
Packet latency average = 27.6741
	minimum = 6
	maximum = 66
Network latency average = 27.6741
	minimum = 6
	maximum = 66
Slowest packet = 46399
Flit latency average = 27.7197
	minimum = 6
	maximum = 66
Slowest flit = 46399
Fragmentation average = 0
	minimum = 0
	maximum = 0
Injected packet rate average = 0.200477
	minimum = 0.1875 (at node 57)
	maximum = 0.222 (at node 2)
Accepted packet rate average = 0.200539
	minimum = 0.1785 (at node 6)
	maximum = 0.226 (at node 58)
Injected flit rate average = 0.200477
	minimum = 0.1875 (at node 57)
	maximum = 0.222 (at node 2)
Accepted flit rate average= 0.200539
	minimum = 0.1785 (at node 6)
	maximum = 0.226 (at node 58)
Injected packet length average = 1
Accepted packet length average = 1
Total in-flight flits = 326 (326 measured)
latency change    = 0.00723779
throughput change = 0.000973937
Class 0:
Packet latency average = 27.7535
	minimum = 6
	maximum = 66
Network latency average = 27.7535
	minimum = 6
	maximum = 66
Slowest packet = 46399
Flit latency average = 27.7833
	minimum = 6
	maximum = 66
Slowest flit = 46399
Fragmentation average = 0
	minimum = 0
	maximum = 0
Injected packet rate average = 0.200182
	minimum = 0.185667 (at node 50)
	maximum = 0.216 (at node 37)
Accepted packet rate average = 0.200172
	minimum = 0.186 (at node 42)
	maximum = 0.221333 (at node 15)
Injected flit rate average = 0.200182
	minimum = 0.185667 (at node 50)
	maximum = 0.216 (at node 37)
Accepted flit rate average= 0.200172
	minimum = 0.186 (at node 42)
	maximum = 0.221333 (at node 15)
Injected packet length average = 1
Accepted packet length average = 1
Total in-flight flits = 336 (336 measured)
latency change    = 0.00286032
throughput change = 0.00183436
Draining all recorded packets ...
Draining remaining packets ...
Time taken is 6110 cycles
====== Overall Traffic Statistics ======
====== Traffic class 0 ======
Packet latency average = 27.7941 (1 samples)
	minimum = 6 (1 samples)
	maximum = 66 (1 samples)
Network latency average = 27.7941 (1 samples)
	minimum = 6 (1 samples)
	maximum = 66 (1 samples)
Flit latency average = 27.813 (1 samples)
	minimum = 6 (1 samples)
	maximum = 66 (1 samples)
Fragmentation average = 0 (1 samples)
	minimum = 0 (1 samples)
	maximum = 0 (1 samples)
Injected packet rate average = 0.200182 (1 samples)
	minimum = 0.185667 (1 samples)
	maximum = 0.216 (1 samples)
Accepted packet rate average = 0.200172 (1 samples)
	minimum = 0.186 (1 samples)
	maximum = 0.221333 (1 samples)
Injected flit rate average = 0.200182 (1 samples)
	minimum = 0.185667 (1 samples)
	maximum = 0.216 (1 samples)
Accepted flit rate average = 0.200172 (1 samples)
	minimum = 0.186 (1 samples)
	maximum = 0.221333 (1 samples)
Injected packet size average = 1 (1 samples)
Accepted packet size average = 1 (1 samples)
Hops average = 6.2543 (1 samples)
Total run time 1.49791
